test/test_files/input_tests/raw_negative_transformer_control.raw
0, 100.00, 33, 0, 0, 60.00 / negative CONT transformer-control regression
Negative CONT transformer-control regression
Negative CONT must preserve the supplied reverse control direction.
1,'FROM BUS    ',230.0000,3,0.0000,0.0000,1,1,1.000000,0.000000,1.100000,0.900000
2,'TO BUS      ',230.0000,1,0.0000,0.0000,1,1,1.000000,0.000000,1.100000,0.900000
3,'REMOTE BUS  ',230.0000,3,0.0000,0.0000,1,1,1.000000,0.000000,1.100000,0.900000
0 / END OF BUS DATA, BEGIN LOAD DATA
0 / END OF LOAD DATA, BEGIN FIXED SHUNT DATA
0 / END OF FIXED SHUNT DATA, BEGIN GENERATOR DATA
1,'1 ',0.000,0.000,100.000,-100.000,1.000000,0,100.000,0.00000,1.00000,0.00000,0.00000,1.00000,1,100.0,100.000,0.000,1,1.0000
0 / END OF GENERATOR DATA, BEGIN BRANCH DATA
0 / END OF BRANCH DATA, BEGIN TRANSFORMER DATA
1,2,0,'1 ',1,1,1,0.00000,0.00000,2,'REMOTE CTRL ',1,1,1.0000,0,1.0000,0,1.0000,0,1.0000
0.001000,0.010000,100.00
1.000000,230.000,0.000000,100.00,100.00,100.00,1,-3,1.100000,0.900000,1.100000,0.900000,33,0,0.00000,0.00000,0.000
1.000000,230.000
0 / END OF TRANSFORMER DATA, BEGIN AREA DATA
0 / END OF AREA DATA, BEGIN TWO-TERMINAL DC DATA
0 / END OF TWO-TERMINAL DC DATA, BEGIN VOLTAGE SOURCE CONVERTER DATA
0 / END OF VOLTAGE SOURCE CONVERTER DATA, BEGIN IMPEDANCE CORRECTION DATA
0 / END OF IMPEDANCE CORRECTION DATA, BEGIN MULTI-TERMINAL DC DATA
0 / END OF MULTI-TERMINAL DC DATA, BEGIN MULTI-SECTION LINE DATA
0 / END OF MULTI-SECTION LINE DATA, BEGIN ZONE DATA
0 / END OF ZONE DATA, BEGIN INTER-AREA TRANSFER DATA
0 / END OF INTER-AREA TRANSFER DATA, BEGIN OWNER DATA
0 / END OF OWNER DATA, BEGIN FACTS CONTROL DEVICE DATA
0 / END OF FACTS CONTROL DEVICE DATA, BEGIN SWITCHED SHUNT DATA
0 / END OF SWITCHED SHUNT DATA, BEGIN GNE DEVICE DATA
0 / END OF GNE DEVICE DATA
Q
